*Heading
** Job name: sph_axi_Pres Model name: Model-1
** Generated by: Abaqus/CAE 2019
*Preprint, echo=NO, model=NO, history=NO, contact=NO
**
** PARTS
**
*Part, name=Part-1
*Node
      1,  0.150000006,           0.
      2, 0.00749999983,           0.
      3,           0., -0.00749999983
      4,           0., -0.150000006
      5,  0.150000006, -0.150000006
      6,  0.150000006,  0.150000006
      7,           0.,  0.150000006
      8,           0., 0.00749999983
      9,           0.,           0.
     10,  0.142499998,           0.
     11,  0.135000005,           0.
     12,  0.127499998,           0.
     13,  0.119999997,           0.
     14,  0.112499997,           0.
     15,  0.104999997,           0.
     16, 0.0974999964,           0.
     17, 0.0900000036,           0.
     18, 0.0825000033,           0.
     19,  0.075000003,           0.
     20, 0.0675000027,           0.
** ... 1182 like lines cut
*Element, type=CAX4
  1, 190,  37,  38, 188
  2,  98,  99, 240, 238
  3,  44,  45, 614, 198
  4, 254,  21,  22, 216
  5,  29,   2,  30, 608
  6, 191, 197, 621, 609
  7, 189,  40,  41, 200
  8, 615, 614,  45,  46
  9, 250, 203, 624, 204
 10, 250, 204, 308, 313
 11, 211,  24,  25, 213
 12,  23, 210, 216,  22
 13,  58,  59, 220, 277
 14, 273, 221, 217, 281
 15,  77,  78, 217, 221
 16, 275, 232, 233, 283
 17,  82,  83, 232, 218
 18, 232, 275, 274, 218
 19, 219, 276,  96,  97
 20, 393, 400, 444, 425
** ... 1117 like lines cut
*Nset, nset=Set-ECM
    1,    2,    3,    4,    5,    6,    7,    8,   10,   11,   12,   13,   14,   15,   16,   17
   18,   19,   20,   21,   22,   23,   24,   25,   26,   27,   28,   29,   30,   31,   32,   33
   34,   35,   36,   37,   38,   39,   40,   41,   42,   43,   44,   45,   46,   47,   48,   49
   50,   51,   52,   53,   54,   55,   56,   57,   58,   59,   60,   61,   62,   63,   64,   65
   66,   67,   68,   69,   70,   71,   72,   73,   74,   75,   76,   77,   78,   79,   80,   81
   82,   83,   84,   85,   86,   87,   88,   89,   90,   91,   92,   93,   94,   95,   96,   97
   98,   99,  100,  101,  102,  103,  104,  105,  106,  107,  108,  109,  110,  111,  112,  113
  114,  115,  116,  117,  118,  119,  120,  121,  122,  123,  124,  125,  126,  127,  128,  129
  130,  131,  132,  133,  134,  135,  136,  137,  138,  139,  140,  141,  142,  143,  144,  145
  146,  147,  148,  149,  150,  151,  152,  153,  154,  155,  156,  157,  158,  159,  160,  161
  162,  163,  164,  165,  166,  167,  168,  169,  170,  171,  172,  173,  174,  175,  176,  177
  178,  179,  180,  181,  182,  183,  188,  189,  190,  191,  192,  193,  194,  195,  196,  197
  198,  199,  200,  201,  202,  203,  204,  205,  206,  207,  208,  209,  210,  211,  212,  213
  214,  215,  216,  217,  218,  219,  220,  221,  222,  223,  224,  225,  226,  227,  228,  229
  230,  231,  232,  233,  234,  235,  236,  237,  238,  239,  240,  241,  242,  243,  244,  245
  246,  247,  248,  249,  250,  251,  252,  253,  254,  255,  256,  257,  258,  259,  260,  261
  262,  263,  264,  265,  266,  267,  268,  269,  270,  271,  272,  273,  274,  275,  276,  277
  278,  279,  280,  281,  282,  283,  284,  285,  286,  287,  288,  289,  290,  291,  292,  293
  294,  295,  296,  297,  298,  299,  300,  301,  302,  303,  304,  305,  306,  307,  308,  309
  310,  311,  312,  313,  314,  315,  316,  317,  318,  319,  320,  321,  322,  323,  324,  325
** ... 51 like lines cut
*Elset, elset=Set-ECM, generate
    1,  1040,     1
*Nset, nset=Set-sph
    2,    3,    8,    9,   30,   31,   32,   33,   34,   35,   36,   37,   38,   39,   40,   41
   42,   43,   44,   45,   46,   47,   48,  165,  166,  167,  168,  169,  170,  171,  172,  173
  174,  175,  176,  177,  178,  179,  180,  181,  182,  183,  184,  185,  186,  187, 1128, 1129
 1130, 1131, 1132, 1133, 1134, 1135, 1136, 1137, 1138, 1139, 1140, 1141, 1142, 1143, 1144, 1145
 1146, 1147, 1148, 1149, 1150, 1151, 1152, 1153, 1154, 1155, 1156, 1157, 1158, 1159, 1160, 1161
 1162, 1163, 1164, 1165, 1166, 1167, 1168, 1169, 1170, 1171, 1172, 1173, 1174, 1175, 1176, 1177
 1178, 1179, 1180, 1181, 1182, 1183, 1184, 1185, 1186, 1187, 1188, 1189, 1190, 1191, 1192, 1193
 1194, 1195, 1196, 1197, 1198, 1199, 1200, 1201, 1202
*Elset, elset=Set-sph, generate
 1041,  1137,     1
** Section: Section-1
*Solid Section, elset=Set-ECM, material=Material-e
,
** Section: Section-2
*Solid Section, elset=Set-sph, material=Material-s
,
*End Part
**  
**
** ASSEMBLY
**
*Assembly, name=Assembly
**  
*Instance, name=Part-1-1, part=Part-1
*End Instance
**  
*Nset, nset=Set-1, instance=Part-1-1
   1,   4,   5,   6,   7,  69,  70,  71,  72,  73,  74,  75,  76,  77,  78,  79
  80,  81,  82,  83,  84,  85,  86,  87,  88,  89,  90,  91,  92,  93,  94,  95
  96,  97,  98,  99, 100, 101, 102, 103, 104, 105, 106, 107, 108, 109, 110, 111
 112, 113, 114, 115, 116, 117, 118, 119, 120, 121, 122, 123, 124, 125, 126, 127
 128, 129, 130, 131, 132, 133, 134, 135, 136, 137, 138, 139, 140, 141, 142, 143
 144,
*Elset, elset=Set-1, instance=Part-1-1
   2,  15,  17,  19,  37,  42,  46,  49,  52,  53,  54,  55,  56,  57,  59,  60
  64,  73, 114, 115, 120, 127, 128, 129, 132, 133, 134, 136, 137, 142, 143, 148
 149, 150, 160, 166, 171, 173, 203, 530, 531, 532, 538, 539, 540, 541, 546, 547
 554, 555, 556, 557, 558, 559, 560, 561, 562, 563, 623, 633, 635, 636, 638, 639
 641, 647, 648, 651, 655, 656, 657, 659, 662, 664, 674, 680, 686, 690
*Nset, nset=Set-3, instance=Part-1-1
   3,   4,   7,   8,   9,  49,  50,  51,  52,  53,  54,  55,  56,  57,  58,  59
  60,  61,  62,  63,  64,  65,  66,  67,  68, 145, 146, 147, 148, 149, 150, 151
 152, 153, 154, 155, 156, 157, 158, 159, 160, 161, 162, 163, 164, 184, 185, 186
 187,
*Elset, elset=Set-3, instance=Part-1-1
   13,   31,   33,   39,   40,   44,   45,   46,   47,   78,   88,   91,   98,  100,  109,  110
  113,  118,  122,  123,  170,  522,  547,  548,  564,  571,  572,  573,  574,  575,  576,  577
  600,  613,  618,  624,  626,  627,  629,  661,  682, 1034, 1046, 1063, 1115, 1117, 1120, 1124
*Nset, nset=Set-4, instance=Part-1-1
  4,  5, 69, 70, 71, 72, 73, 74, 75, 76, 77, 78, 79, 80, 81, 82
 83, 84, 85, 86, 87
*Elset, elset=Set-4, instance=Part-1-1
  15,  17,  37,  42,  46,  49,  53,  55,  57, 114, 120, 127, 128, 129, 132, 134
 136, 166, 171, 173
*Nset, nset=Set-5, instance=Part-1-1
   1,   5,   6,  88,  89,  90,  91,  92,  93,  94,  95,  96,  97,  98,  99, 100
 101, 102, 103, 104, 105, 106, 107, 108, 109, 110, 111, 112, 113, 114, 115, 116
 117, 118, 119, 120, 121, 122, 123, 124, 125
*Elset, elset=Set-5, instance=Part-1-1
   2,  19,  52,  54,  56,  57,  59,  60,  64,  73, 115, 133, 137, 142, 143, 148
 149, 150, 160, 203, 530, 531, 538, 539, 540, 541, 546, 623, 633, 635, 636, 638
 639, 641, 647, 651, 656, 657, 674, 690
*Nset, nset=Set-6, instance=Part-1-1
   6,   7, 126, 127, 128, 129, 130, 131, 132, 133, 134, 135, 136, 137, 138, 139
 140, 141, 142, 143, 144
*Elset, elset=Set-6, instance=Part-1-1
 531, 532, 547, 554, 555, 556, 557, 558, 559, 560, 561, 562, 563, 648, 655, 659
 662, 664, 680, 686
*Nset, nset=Set-bnd, instance=Part-1-1
   3,   4,   7,   8,   9,  49,  50,  51,  52,  53,  54,  55,  56,  57,  58,  59
  60,  61,  62,  63,  64,  65,  66,  67,  68, 145, 146, 147, 148, 149, 150, 151
 152, 153, 154, 155, 156, 157, 158, 159, 160, 161, 162, 163, 164, 184, 185, 186
 187,
*Elset, elset=Set-bnd, instance=Part-1-1
   13,   31,   33,   39,   40,   44,   45,   46,   47,   78,   88,   91,   98,  100,  109,  110
  113,  118,  122,  123,  170,  522,  547,  548,  564,  571,  572,  573,  574,  575,  576,  577
  600,  613,  618,  624,  626,  627,  629,  661,  682, 1034, 1046, 1063, 1115, 1117, 1120, 1124
*Elset, elset=_Surf-1_S2, internal, instance=Part-1-1
 531, 532, 554, 555, 556, 560, 561, 562, 648, 659, 680, 686
*Elset, elset=_Surf-1_S1, internal, instance=Part-1-1
 547,
*Elset, elset=_Surf-1_S4, internal, instance=Part-1-1
 557, 558, 559, 563, 655, 662, 664
*Surface, type=ELEMENT, name=Surf-1
_Surf-1_S2, S2
_Surf-1_S1, S1
_Surf-1_S4, S4
*End Assembly
** 
** MATERIALS
** 
*Material, name=Material-e
*hyperelastic, neohooke
 0.00011, 4138
** 0.00016, 2824
** 0.00021, 2182
**
*Material, name=Material-s
*Depvar
    20,
*User Material, constants=6
0.00017, 85 ,2, 0.89, 2.2e-3, 0.077
** C10, D1, iswitch, tau, p0, beta
**
**AMPLITUDE
*amplitude, name = amp1
0,0,1,1,7,1
**
** BOUNDARY CONDITIONS
** 
** Name: BC-1 Type: Displacement/Rotation
*Boundary
Set-3, 1, 1
** Name: BC-2 Type: Displacement/Rotation
*Boundary
Set-4, 1, 1
** ----------------------------------------------------------------
** 
** STEP: Step-1
** 
*Step, name=Step-1, nlgeom=YES, inc=1000
*Static
1e-3, 7., 1e-05, 0.05
** 
** BOUNDARY CONDITIONS
** 
** Name: BC-2 Type: Displacement/Rotation
*Boundary
Set-4, 2, 2
** Name: BC-3 Type: Displacement/Rotation
*Boundary
Set-5, 1, 1
** 
**
** LOADS
** 
** Name: Load-1   Type: Pressure
*Dsload, amplitude = amp1
Surf-1, P, 0.0002
** 
** OUTPUT REQUESTS
** 
*Restart, write, frequency=0
** 
*Output, field, frequency=1
*node Output
RF,U, coord
**
*Output, field, frequency=1                  
*Element Output, directions=YES                        
S, EVOL, LE, SDV
*End Step
